LAMMPS (17 Nov 2016)
# Input file for nanocutting of Cubic SiC with a diamond tool
# Chris Fung, Apr 2019
#package cuda gpu/node 1 0
#package omp 2 force/neigh
# ------------------------ INITIALIZATION ----------------------------
units 		metal
dimension	3
boundary	s	s	p
atom_style	atomic

variable a equal 4.3668
variable b equal 3.571
variable c equal $a/$b
variable c equal 4.3668/$b
variable c equal 4.3668/3.571

variable doc equal 5		# depth of cut (Å) = doc × a
variable wy equal 15		# thickness of workpiece material in y-direction

variable dx equal 70*$c
variable dx equal 70*1.22285074208905
variable dy equal (15-5)*$c
variable dy equal (15-5)*1.22285074208905
variable lx equal 31
variable ly equal 31
variable dx1 equal 85.5995519462335+31
variable dy1 equal 12.2285074208905+31
variable rakeangle equal 15/180*PI
variable rkshiftX equal -31*tan(0.261799387799149)
variable lr equal 4
variable rx equal 85.5995519462335+4-4*tan(0.261799387799149)
variable ry equal 12.2285074208905+4
variable clearangle equal 0.1/180*PI
variable tx1 equal 88.527755176509+4*sin(0.00174532925199433)
variable tx2 equal 88.5347364899726+31
variable ty1 equal 16.2285074208905-4*cos(0.00174532925199433)
variable ty2 equal 12.2285135132374+31*tan(0.00174532925199433)
variable bx1 equal 116.599551946234-1
variable bx2 equal 115.599551946234-1
variable by1 equal 43.2285074208905-1
variable by2 equal 42.2285074208905-1

lattice fcc $a
lattice fcc 4.3668
Lattice spacing in x,y,z = 4.3668 4.3668 4.3668
region		whole block 0 99 0 47 0 18
create_box	3 whole
Created orthogonal box = (0 0 0) to (432.313 205.24 78.6024)

# ----------------------- ATOM DEFINITION ----------------------------

# create C atoms for diamond tool
lattice diamond $b orient x 1 0 0 orient y 0 1 0 origin 0 0 0.4
lattice diamond 3.571 orient x 1 0 0 orient y 0 1 0 origin 0 0 0.4
Lattice spacing in x,y,z = 3.571 3.571 3.571

# define the shape, dimension, and initial position of cutting tool
region cut_toolB block 85.5995519462335 116.599551946234 12.2285074208905 43.2285074208905 INF INF
region rakeface prism 85.5995519462335 116.599551946234 12.2285074208905 43.2285074208905 INF INF  -8.30642496536479 0 0
region cut_toolR cylinder z 88.527755176509 16.2285074208905  4 INF INF
region trimbox1a block EDGE 88.527755176509 12.2285074208905 16.2285074208905 INF INF side out
region trimbox1b block EDGE EDGE EDGE 12.2285135132374 INF INF side out
region cut_toolBR union 2 cut_toolB rakeface
region cut_toolTr intersect 3 cut_toolBR trimbox1a trimbox1b
region cut_tool union 2 cut_toolTr cut_toolR

region trimbox2 prism 88.5347364899726 119.534736489973 12.2285135132374 12.2826187749873 INF INF 31 0 0

#define boundaries of cutting tool
region ctTop block 85.5995519462335 116.599551946234 42.2285074208905 43.2285074208905 INF INF
region ctxEnd block 115.599551946234 116.599551946234 12.2285074208905 43.2285074208905 INF INF
region ctTSbottom block 85.5995519462335 115.599551946234 41.2285074208905 42.2285074208905 INF INF
region ctTSxEnd block 114.599551946234 115.599551946234 12.2285074208905 42.2285074208905 INF INF
region ctbound union 2 ctTop ctxEnd
region ctTSbound union 2 ctTSbottom ctTSxEnd

# create C atoms of diamond tool and make a nano-groove on the flank face
create_atoms 1 region cut_tool
Created 191488 atoms

# unit = length of a diamond unit cell
variable gy equal 12.2285074208905+6
variable gz equal 9*$c
variable gz equal 9*1.22285074208905

region p1 plane 0 18.2285074208905 11.0056566788015 0 -1 1
region p2 plane 0 18.2285074208905 11.0056566788015 0 -1 -1
region groove intersect 2 p1 p2

delete_atoms region groove
Deleted 9305 atoms, new total = 182183
delete_atoms region trimbox2
Deleted 310 atoms, new total = 181873

group gpCTall region  cut_tool
181873 atoms in group gpCTall
group gpCTbd  region  ctbound
10416 atoms in group gpCTbd
group gpCTtsbd  region  ctTSbound
10064 atoms in group gpCTtsbd
group gpCTmob subtract gpCTall gpCTbd gpCTtsbd
161393 atoms in group gpCTmob

print "diamond tool created"
diamond tool created
#------------------------------------------------------------

# define the lattice of cubic SiC (two atom types form two interpenetrating face-centered cubic lattices)

# define the shape and dimension of the workpiece
lattice fcc $a origin 0 0 0 orient x 1 0 0 orient y 0 1 0
lattice fcc 4.3668 origin 0 0 0 orient x 1 0 0 orient y 0 1 0
Lattice spacing in x,y,z = 4.3668 4.3668 4.3668

# define the boundaries for workpiece
region workpiece block 0 65 0 15 INF INF
region wpbottom block 0 65 0 1 INF INF
region wpxEnd block 0 1 0 15 INF INF
region wpTSbottom block 1 65 1 2 INF INF
region wpTSxEnd block 1 2 1 15 INF INF
region wpbound union 2 wpbottom wpxEnd
region wpTSbound union 2 wpTSbottom wpTSxEnd

# create Si atoms for SiC workpiece
create_atoms	2 region workpiece
Created 73098 atoms

# offset origin for 1/4 unit cell for C atoms
lattice fcc $a origin 0.25 0.25 0.25 orient x 1 0 0 orient y 0 1 0
lattice fcc 4.3668 origin 0.25 0.25 0.25 orient x 1 0 0 orient y 0 1 0
Lattice spacing in x,y,z = 4.3668 4.3668 4.3668
create_atoms	3 region workpiece
Created 70200 atoms

# groups atoms
group gpWPall region workpiece
143298 atoms in group gpWPall
group gpWPbd region wpbound
14274 atoms in group gpWPbd
group gpWPtsbd region wpTSbound
13914 atoms in group gpWPtsbd
group gpWPmob subtract gpWPall gpWPbd gpWPtsbd
117936 atoms in group gpWPmob

print "Workpiece created"
Workpiece created

#-------------------------------------------------

# define the mass of atoms
mass 1 12 #.0107 # C (g/mol)
mass 2 28 #.0855 # Si (g/mol)
mass 3 12 #.0107 # C (g/mol)

#group Si type 2
#group C type 1 3

lattice fcc $a origin 0 0 0
lattice fcc 4.3668 origin 0 0 0
Lattice spacing in x,y,z = 4.3668 4.3668 4.3668

# ------------------------ FORCE FIELDS ------------------------------

#pair_style	atomistica Tersoff
#pair_coeff	* *  C Si C
pair_style      atomistica BrennerScr
pair_coeff	* * C Si C

# pair_style	tersoff
# pair_coeff	* * SiC_Erhart-Albe.tersoff C Si C

# ------------------------- SETTINGS ---------------------------------
######################################
# EQUILIBRATION

group gpCTeq union gpCTmob gpCTtsbd
171457 atoms in group gpCTeq
group gpWPeq union gpWPmob gpWPtsbd
131850 atoms in group gpWPeq
group gpAlleq union gpCTeq gpWPeq
303307 atoms in group gpAlleq

compute myCTtemp gpCTeq temp
compute myWPtemp gpWPeq temp
velocity gpAlleq create 300 102456 dist uniform

fix 1 gpCTeq nvt temp 300.0 300.0 0.1 # aniso 1.0 1.0 0.5
fix_modify 1 temp myCTtemp
fix 2 gpWPeq nvt temp 300.0 300.0 0.1 # aniso 1.0 1.0 0.5
fix_modify 2 temp myWPtemp

reset_timestep	0
timestep 0.001 # set 1 femtosecond per step

fix 3 gpWPbd move linear 0 0 0
fix 4 gpCTbd move linear -0.75 0 0  units box

fix 10 all balance 100 0.9 shift xy 10 1.05 out tmp.balance
fix 13 all property/atom mol ghost yes

set group gpCTmob mol 1
  161393 settings made for mol
set group gpCTtsbd mol 2
  10064 settings made for mol
set group gpCTbd mol 3
  10416 settings made for mol

set group gpWPmob mol 4
  117936 settings made for mol
set group gpWPtsbd mol 5
  13914 settings made for mol
set group gpWPbd mol 6
  14274 settings made for mol

# Display thermo

thermo 	100
thermo_style custom step temp c_myCTtemp c_myWPtemp press etotal
#compute		eCSP all centro/atom fcc
#compute atomke all ke/atom
dump	 e0dumpCSP all custom 1000 dump.cutsic_eq.*.lammpstrj id type mol element x y z vx vy vz # c_atomke
dump_modify e0dumpCSP element C Si C

# backup initial state and every 1000 steps
write_restart cut_sic_eq.restart.0000
  1 neighbor list requests
  update every 1 steps, delay 10 steps, check yes
# restart 1000 cut_sic_eq.restart

# Run for at least 10 picosecond
print "start run equilibration"
start run equilibration

run 27000
Step Temp c_myCTtemp c_myWPtemp Press TotEng
0     279.8284    299.40713    300.77324   -8067.1419   -2209252.9
Averages over the last 136 of 271 rows, steps 13500 to 27000:
Temp c_myCTtemp c_myWPtemp Press TotEng
279.884 299.944 299.998 382.252 -2.19976e+06
Loop time of 34443.7 on 32 procs for 27000 steps with 325171 atoms

unfix 1
unfix 2
unfix 3
unfix 4
uncompute myCTtemp
uncompute myWPtemp
undump e0dumpCSP

######################################
# DEFORMATION

# move the tool to closer

#displace_atoms gpCTall move -4.9 0 0

reset_timestep	0
timestep 0.0005

compute myCTmobtemp gpCTmob temp/partial 0 1 1
compute myWPmobtemp gpWPmob temp/partial 0 1 1
compute myCTTStemp gpCTtsbd temp
compute myWPTStemp gpWPtsbd temp/partial 0 1 1

# rescale the temperature of thermostatic boundaries to 300 K

fix 1 gpWPtsbd nvt temp 300.0 300.0 0.01 #iso 1.0 1.0 0.5
fix_modify 1 temp myWPTStemp
fix 2 gpCTtsbd nvt temp 300.0 300.0 0.01 #iso 1.0 1.0 0.5
fix_modify 2 temp myCTTStemp

fix 3 gpWPbd move linear 0 0 0
fix 4 gpCTbd move linear -$v 0 0 units box  # cutting speed = v * 100 (m s^-1 in the x-direction)
fix 4 gpCTbd move linear -3.0 0 0 units box

group mobile union gpCTmob gpWPmob
279329 atoms in group mobile

fix 5 mobile nve

compute ke all ke/atom
fix 12 all ave/atom 10 50 500 c_ke

thermo 	500
thermo_style custom step c_myCTmobtemp c_myCTTStemp c_myWPmobtemp c_myWPTStemp press etotal fmax fnorm

# Output strain and stress info to file
# for units metal, pressure is in [bars] = 100 [kPa] = 1/10000 [GPa]
# p2, p3, p4 are in GPa

## Use cfg for AtomEye
#dump 		1 all cfg 2000 dump.cutsic_*.cfg id type xs ys zs c_csym

# backup initial state and every 1000 steps
write_restart cut_sic.restart.0000
restart 1000 cut_sic.restart

# Display thermo
dump	 0dumpCSP all custom  500 dump.cutsic.*.lammpstrj id type mol x y z vx vy vz f_12
dump_modify 0dumpCSP element C Si C

#write_restart cut_sic.restart.0000
#restart 1000 cut_sic.restart

reset_timestep	0
variable Nstep equal ceil(400000/$v)
variable Nstep equal ceil(400000/3.0)
 run 133334
Step c_myCTmobtemp c_myCTTStemp c_myWPmobtemp c_myWPTStemp Press TotEng Fmax Fnorm
0    298.10308    299.91027    305.86939    239.41298    5763.6101   -2199501.1    6.4373353    1161.5464
Averages over the last 62 of 124 rows, steps 31000 to 61500:
c_myCTmobtemp c_myCTTStemp c_myWPmobtemp c_myWPTStemp Press TotEng Fmax Fnorm
429.939 307.395 868.668 305.015 73523.2 -2.15376e+06 22.0122 1555.52
